54

Fe      0.000000000000000      0.000000000000000      0.000000000000000
Fe      1.435000000000000      1.435000000000000      1.435000000000000
Fe      2.870000000000000      0.000000000000000      0.000000000000000
Fe      4.305000000000000      1.435000000000000      1.435000000000000
Fe      5.740000000000000      0.000000000000000      0.000000000000000
Fe      7.175000000000001      1.435000000000000      1.435000000000000
Fe      0.000000000000000      2.870000000000000      0.000000000000000
Fe      1.435000000000000      4.305000000000000      1.435000000000000
Fe      2.870000000000000      2.870000000000000      0.000000000000000
Fe      4.305000000000000      4.305000000000000      1.435000000000000
Fe      5.740000000000000      2.870000000000000      0.000000000000000
Fe      7.175000000000001      4.305000000000000      1.435000000000000
Fe      0.000000000000000      5.740000000000000      0.000000000000000
Fe      1.435000000000000      7.175000000000001      1.435000000000000
Fe      2.870000000000000      5.740000000000000      0.000000000000000
Fe      4.305000000000000      7.175000000000001      1.435000000000000
Fe      5.740000000000000      5.740000000000000      0.000000000000000
Fe      7.175000000000001      7.175000000000001      1.435000000000000
Fe      0.000000000000000      0.000000000000000      2.870000000000000
Fe      1.435000000000000      1.435000000000000      4.305000000000000
Fe      2.870000000000000      0.000000000000000      2.870000000000000
Fe      4.305000000000000      1.435000000000000      4.305000000000000
Fe      5.740000000000000      0.000000000000000      2.870000000000000
Fe      7.175000000000001      1.435000000000000      4.305000000000000
Fe      0.000000000000000      2.870000000000000      2.870000000000000
Fe      1.435000000000000      4.305000000000000      4.305000000000000
Fe      2.870000000000000      2.870000000000000      2.870000000000000
Fe      4.305000000000000      4.305000000000000      4.305000000000000
Fe      5.740000000000000      2.870000000000000      2.870000000000000
Fe      7.175000000000001      4.305000000000000      4.305000000000000
Fe      0.000000000000000      5.740000000000000      2.870000000000000
Fe      1.435000000000000      7.175000000000001      4.305000000000000
Fe      2.870000000000000      5.740000000000000      2.870000000000000
Fe      4.305000000000000      7.175000000000001      4.305000000000000
Fe      5.740000000000000      5.740000000000000      2.870000000000000
Fe      7.175000000000001      7.175000000000001      4.305000000000000
Fe      0.000000000000000      0.000000000000000      5.740000000000000
Fe      1.435000000000000      1.435000000000000      7.175000000000001
Fe      2.870000000000000      0.000000000000000      5.740000000000000
Fe      4.305000000000000      1.435000000000000      7.175000000000001
Fe      5.740000000000000      0.000000000000000      5.740000000000000
Fe      7.175000000000001      1.435000000000000      7.175000000000001
Fe      0.000000000000000      2.870000000000000      5.740000000000000
Fe      1.435000000000000      4.305000000000000      7.175000000000001
Fe      2.870000000000000      2.870000000000000      5.740000000000000
Fe      4.305000000000000      4.305000000000000      7.175000000000001
Fe      5.740000000000000      2.870000000000000      5.740000000000000
Fe      7.175000000000001      4.305000000000000      7.175000000000001
Fe      0.000000000000000      5.740000000000000      5.740000000000000
Fe      1.435000000000000      7.175000000000001      7.175000000000001
Fe      2.870000000000000      5.740000000000000      5.740000000000000
Fe      4.305000000000000      7.175000000000001      7.175000000000001
Fe      5.740000000000000      5.740000000000000      5.740000000000000
Fe      7.175000000000001      7.175000000000001      7.175000000000001
